Version 4
SHEET 1 2332 680
WIRE 1776 -1152 -1456 -1152
WIRE 528 -1024 368 -1024
WIRE 608 -1024 528 -1024
WIRE 944 -1024 864 -1024
WIRE 1296 -1024 944 -1024
WIRE 1536 -1024 1296 -1024
WIRE 1536 -976 1536 -1024
WIRE 528 -944 528 -1024
WIRE 944 -944 944 -1024
WIRE -960 -880 -960 -976
WIRE -896 -880 -896 -992
WIRE -832 -880 -832 -976
WIRE -704 -880 -704 -976
WIRE 528 -848 528 -880
WIRE 736 -848 736 -928
WIRE 736 -848 528 -848
WIRE 944 -848 944 -880
WIRE 944 -848 736 -848
WIRE 1536 -848 1536 -896
WIRE -1216 -816 -1296 -816
WIRE -1152 -816 -1216 -816
WIRE -1088 -816 -1152 -816
WIRE -1024 -816 -1088 -816
WIRE 736 -784 736 -848
WIRE -1216 -736 -1216 -816
WIRE -1152 -736 -1152 -816
WIRE -1088 -736 -1088 -816
WIRE -1024 -736 -1024 -816
WIRE -768 -736 -768 -816
WIRE 1296 -624 1296 -1024
WIRE 1296 -624 416 -624
WIRE -1216 -608 -1216 -672
WIRE -1152 -608 -1152 -672
WIRE -1088 -608 -1088 -672
WIRE -1024 -608 -1024 -672
WIRE -768 -608 -768 -672
WIRE -1216 -480 -1216 -528
WIRE -1152 -480 -1152 -528
WIRE -1088 -480 -1088 -528
WIRE -1024 -480 -1024 -528
WIRE -960 -480 -960 -880
WIRE -896 -480 -896 -880
WIRE -832 -480 -832 -880
WIRE -768 -480 -768 -528
WIRE -704 -480 -704 -880
WIRE -640 -480 -640 -496
WIRE -448 -480 -448 -560
WIRE -448 -336 -448 -400
WIRE -448 -336 -544 -336
WIRE -304 -336 -448 -336
WIRE -448 -304 -448 -336
WIRE -304 -224 -304 -256
WIRE -640 -176 -640 -192
WIRE -1216 -144 -1216 -192
WIRE -1152 -144 -1152 -192
WIRE -1088 -144 -1088 -192
WIRE -832 -144 -832 -192
WIRE -768 -144 -768 -192
WIRE -704 -144 -704 -192
WIRE 416 -112 416 -624
WIRE 640 -112 480 -112
WIRE 864 -112 704 -112
WIRE -448 -96 -448 -240
WIRE -304 -96 -304 -144
WIRE 288 -96 80 -96
WIRE -960 -48 -960 -192
WIRE -1216 -16 -1216 -64
WIRE -1152 -16 -1152 -64
WIRE -1088 -16 -1088 -64
WIRE -832 -16 -832 -64
WIRE -768 -16 -768 -64
WIRE -704 -16 -704 -64
WIRE 288 16 288 -96
WIRE 352 16 352 -16
WIRE 416 16 416 -112
WIRE 480 16 480 -112
WIRE 80 32 80 -96
WIRE -1216 144 -1216 48
WIRE -1216 144 -1296 144
WIRE -1152 144 -1152 48
WIRE -1152 144 -1216 144
WIRE -1088 144 -1088 48
WIRE -1088 144 -1152 144
WIRE -960 144 -960 -48
WIRE -832 144 -832 48
WIRE -768 144 -768 48
WIRE -768 144 -832 144
WIRE -704 144 -704 48
WIRE -704 144 -768 144
WIRE 1728 144 688 144
WIRE 1776 144 1776 -1152
WIRE 1776 144 1728 144
WIRE 80 160 80 96
WIRE -1024 208 -1024 -192
WIRE -896 240 -896 -192
WIRE -544 240 -544 -336
WIRE -544 240 -896 240
WIRE -1024 256 -1024 208
WIRE 80 336 80 240
WIRE 288 336 288 240
WIRE 288 336 80 336
WIRE -1152 368 -1264 368
WIRE -1024 368 -1024 336
WIRE -1024 368 -1072 368
WIRE -768 368 -1024 368
WIRE 352 368 352 240
WIRE 480 368 480 240
WIRE 64 432 -160 432
WIRE 416 432 416 240
WIRE 416 432 128 432
WIRE -1024 464 -1024 368
WIRE -912 464 -1024 464
WIRE -1456 528 -1456 -1152
WIRE 688 528 688 144
WIRE 688 528 -1456 528
WIRE 1776 528 1776 144
WIRE 1776 528 688 528
FLAG 352 368 0
FLAG 480 368 0
FLAG 352 -16 nc
FLAG 416 -112 9v
FLAG 864 -112 audio_output
FLAG -160 432 audio_input
FLAG -640 -496 nc
FLAG -640 -176 nc
FLAG -960 -880 5.1v
FLAG -1296 -816 0
FLAG -1296 144 0
FLAG -704 144 0
FLAG -768 -816 0
FLAG -896 -880 PDG
FLAG -832 -880 PGC
FLAG -1024 208 MCLR
FLAG -1264 368 5.1v
FLAG -768 368 pickit3
FLAG -896 -992 pickit3
FLAG -832 -976 pickit3
FLAG -960 -976 pickit3
FLAG -960 -48 pickit3
FLAG -960 144 0
FLAG -704 -880 PGC
FLAG -704 -976 pickit3
FLAG -448 -96 0
FLAG -448 -560 5.1v
FLAG 1536 -848 0
FLAG -304 -96 0
FLAG 368 -1024 5.1V
FLAG 736 -784 0
FLAG 1728 144 0
SYMBOL res 64 144 R0
SYMATTR InstName VOLUME
SYMATTR Value 10K
SYMBOL cap 64 32 R0
SYMATTR InstName C1
SYMATTR Value 10µ
SYMBOL cap 704 -128 R90
WINDOW 0 0 32 VBottom 2
WINDOW 3 32 32 VTop 2
SYMATTR InstName C2
SYMATTR Value 220µ
SYMBOL cap 128 416 R90
WINDOW 0 0 32 VBottom 2
WINDOW 3 32 32 VTop 2
SYMATTR InstName C3
SYMATTR Value 10µ
SYMBOL Misc\\DIP8 384 128 R270
SYMATTR InstName LM386
SYMBOL Misc\\DIP20 -1120 -336 R270
SYMATTR InstName PIC16F648A
SYMBOL res -784 -624 R0
SYMATTR InstName R13
SYMATTR Value 1k
SYMBOL res -720 -160 R0
SYMATTR InstName R2
SYMATTR Value 1k
SYMBOL res -784 -160 R0
SYMATTR InstName R3
SYMATTR Value 1k
SYMBOL res -848 -160 R0
SYMATTR InstName R4
SYMATTR Value 1k
SYMBOL res -1232 -160 R0
SYMATTR InstName R5
SYMATTR Value 1k
SYMBOL res -1168 -160 R0
SYMATTR InstName R6
SYMATTR Value 1k
SYMBOL res -1104 -160 R0
SYMATTR InstName R7
SYMATTR Value 1k
SYMBOL res -1232 -624 R0
SYMATTR InstName R8
SYMATTR Value 1k
SYMBOL res -1168 -624 R0
SYMATTR InstName R9
SYMATTR Value 1k
SYMBOL res -1104 -624 R0
SYMATTR InstName R10
SYMATTR Value 1k
SYMBOL res -1040 -624 R0
SYMATTR InstName R11
SYMATTR Value 1k
SYMBOL LED -1232 -16 R0
SYMATTR InstName D1
SYMBOL LED -1168 -16 R0
SYMATTR InstName D2
SYMBOL LED -1104 -16 R0
SYMATTR InstName D3
SYMBOL LED -848 -16 R0
SYMATTR InstName D4
SYMBOL LED -784 -16 R0
SYMATTR InstName D5
SYMBOL LED -720 -16 R0
SYMATTR InstName D6
SYMBOL LED -1200 -672 R180
WINDOW 0 24 64 Left 2
WINDOW 3 24 0 Left 2
SYMATTR InstName D7
SYMBOL LED -1136 -672 R180
WINDOW 0 24 64 Left 2
WINDOW 3 24 0 Left 2
SYMATTR InstName D8
SYMBOL LED -1072 -672 R180
WINDOW 0 24 64 Left 2
WINDOW 3 24 0 Left 2
SYMATTR InstName D9
SYMBOL LED -1008 -672 R180
WINDOW 0 24 64 Left 2
WINDOW 3 24 0 Left 2
SYMATTR InstName D10
SYMBOL LED -752 -672 R180
WINDOW 0 24 64 Left 2
WINDOW 3 24 0 Left 2
SYMATTR InstName D11
SYMBOL res -1040 240 R0
SYMATTR InstName R12
SYMATTR Value 0
SYMBOL res -1056 352 R90
WINDOW 0 0 56 VBottom 2
WINDOW 3 32 56 VTop 2
SYMATTR InstName R14
SYMATTR Value 10K
SYMBOL cap -464 -304 R0
SYMATTR InstName C4
SYMBOL res -464 -496 R0
SYMATTR InstName R15
SYMATTR Value 10k
SYMBOL Misc\\battery 1536 -992 R0
WINDOW 123 0 0 Left 2
WINDOW 39 0 0 Left 2
SYMATTR InstName V2
SYMATTR Value 9
SYMBOL csw -304 -336 R0
SYMATTR InstName BUTTON
SYMBOL PowerProducts\\LT1587 736 -1024 M0
SYMATTR InstName LM78L05
SYMBOL cap 512 -944 R0
SYMATTR InstName C5
SYMATTR Value 10n
SYMBOL cap 928 -944 R0
SYMATTR InstName C6
SYMATTR Value 330n
SYMBOL res -320 -240 R0
SYMATTR InstName R1
SYMATTR Value 100
TEXT 80 288 Left 2 ;needs sorting
TEXT -336 -504 Left 2 ;needs sorting\nand should\nbe closer to\nint pin
TEXT 1232 216 Center 6 ;KAM ROBERTSON\nECE411 DEV. BOARD\nOCTOBER 2016
TEXT -912 432 Left 2 ;RESET BUTTON \nTO GROUND\nGOES HERE
